BEGIN OPTIONS
END OPTIONS

# The DIMENSIONS block is required
BEGIN DIMENSIONS
	MAXBOUND 6
END DIMENSIONS

#The following block of constant-head cells will be activated
#for stress period 1. This block will remain active throughout
#the simulation.
BEGIN PERIOD 1
	# l r c head
	# left
	1 1.0
	2 1.0
	3 1.0
	# right
	7 2.0
	8 2.0
	9 2.0
END PERIOD 1