BEGIN OPTIONS
END OPTIONS

BEGIN GRIDDATA
  ICELLTYPE
    CONSTANT 0
  K
    CONSTANT 10.0
  K33
    CONSTANT 10.0
END GRIDDATA