BEGIN OPTIONS
  HEAD FILEOUT .\testje\heads\testje.hds
END OPTIONS

BEGIN PERIOD 1
  SAVE HEAD ALL
  PRINT HEAD ALL
END PERIOD