# TDIS input file
BEGIN OPTIONS
	TIME_UNITS DAYS
END OPTIONS

BEGIN DIMENSIONS
	NPER 5
END DIMENSIONS

BEGIN PERIODDATA
	100.0   5   1.0
    100.0   10  1.0
    100.0   5   1.0
    100.0   10  1.0
    100.0   5   1.0    
END PERIODDATA