BEGIN OPTIONS
END OPTIONS

BEGIN DIMENSIONS
    MAXBOUND 1
END DIMENSIONS


BEGIN PERIOD 2
    1   5   5   -10
END PERIOD

BEGIN PERIOD 3
    1   5   5   -20
END PERIOD

BEGIN PERIOD 5
END PERIOD